data_1
_audit_creation_method   'vasp2cif'
_cell_length_a    8.07500065361
_cell_length_b    5.44044464194
_cell_length_c    7.64686374101
_cell_angle_alpha    90.0
_cell_angle_beta    102.177919392
_cell_angle_gamma    90.0

_symmetry_space_group_name_H-M    'P 1'
loop_
_atom_site_label
_atom_site_type_symbol
_atom_site_fract_x
_atom_site_fract_y
_atom_site_fract_z
_atom_site_occupancy
Na1   Na   0.362154134978963   0.781354521887804   0.118504182719571   1.0
Na2   Na   0.637845835021041   0.218645478112196   0.881495824280426   1.0
Na3   Na   0.637845835021041   0.281354521887804   0.381495824280426   1.0
Na4   Na   0.362154134978963   0.718645478112196   0.618504175719574   1.0
Nb5   Nb   0.156312758593232   0.266187783865097   0.317895757097662   1.0
Nb6   Nb   0.843687226406770   0.733812216134903   0.682104272902340   1.0
Nb7   Nb   0.843687226406770   0.766187783865097   0.182104242902338   1.0
Nb8   Nb   0.156312758593232   0.233812216134903   0.817895727097660   1.0
O9   O   0.179538585210612   0.156608985780890   0.055172500127650   1.0
O10   O   0.820461414789388   0.843391029219115   0.944827477872349   1.0
O11   O   0.820461414789388   0.656608970780885   0.444827507872351   1.0
O12   O   0.179538585210612   0.343391029219115   0.555172522127651   1.0
O13   O   0.037390271744951   0.558165073208714   0.212262687472174   1.0
O14   O   0.962609709255044   0.441834926791286   0.787737297527821   1.0
O15   O   0.962609709255044   0.058165073208714   0.287737297527821   1.0
O16   O   0.037390271744951   0.941834926791286   0.712262702472179   1.0
F17   F   0.375603021708113   0.452933877214815   0.312885846141588   1.0
F18   F   0.624397007291885   0.547066122785185   0.687114183858414   1.0
F19   F   0.624397007291885   0.952933877214815   0.187114153858412   1.0
F20   F   0.375603021708113   0.047066122785185   0.812885816141586   1.0
F21   F   0.315725462943118   0.977285237797847   0.378699182010170   1.0
F22   F   0.684274537056882   0.022714762202153   0.621300817989830   1.0
F23   F   0.684274537056882   0.477285237797847   0.121300817989830   1.0
F24   F   0.315725462943118   0.522714762202153   0.878699182010170   1.0


