data_1
_audit_creation_method   'vasp2cif'
_cell_length_a    8.18796174984
_cell_length_b    5.4810736926
_cell_length_c    7.55082792291
_cell_angle_alpha    90.0
_cell_angle_beta    102.398854057
_cell_angle_gamma    90.0

_symmetry_space_group_name_H-M    'P 1'
loop_
_atom_site_label
_atom_site_type_symbol
_atom_site_fract_x
_atom_site_fract_y
_atom_site_fract_z
_atom_site_occupancy
Na1   Na   0.370773410438306   0.789818540682211   0.107654593295895   1.0
Na2   Na   0.629226559561691   0.210181459317789   0.892345406704105   1.0
Na3   Na   0.629226559561691   0.289818540682211   0.392345406704105   1.0
Na4   Na   0.370773410438306   0.710181459317789   0.607654593295895   1.0
Ta5   Ta   0.158851678859214   0.259926249039770   0.296811162163599   1.0
Ta6   Ta   0.841148351140788   0.740073780960232   0.703188867836396   1.0
Ta7   Ta   0.841148351140788   0.759926219039768   0.203188837836400   1.0
Ta8   Ta   0.158851678859214   0.240073750960230   0.796811132163604   1.0
O9   O   0.187276807443195   0.167058116215148   0.053053987126726   1.0
O10   O   0.812723162556802   0.832941913784855   0.946945990873273   1.0
O11   O   0.812723162556802   0.667058086215145   0.446946020873268   1.0
O12   O   0.187276807443195   0.332941883784852   0.553054009126727   1.0
O13   O   0.028567453173070   0.546781256035954   0.214005650943582   1.0
O14   O   0.971432535826933   0.453218743964046   0.785994334056413   1.0
O15   O   0.971432535826933   0.046781256035953   0.285994334056413   1.0
O16   O   0.028567453173070   0.953218743964046   0.714005665943587   1.0
F17   F   0.370447042338342   0.468749809816687   0.313422056529359   1.0
F18   F   0.629552957661658   0.531250190183313   0.686577973470643   1.0
F19   F   0.629552957661658   0.968749809816687   0.186577943470640   1.0
F20   F   0.370447042338342   0.031250190183313   0.813422026529357   1.0
F21   F   0.324025324704853   0.984338850037727   0.374876562713342   1.0
F22   F   0.675974675295147   0.015661149962273   0.625123407286656   1.0
F23   F   0.675974675295147   0.484338850037727   0.125123437286658   1.0
F24   F   0.324025324704853   0.515661149962273   0.874876592713344   1.0


