data_1
_audit_creation_method   'vasp2cif'
_cell_length_a    8.0025997162
_cell_length_b    5.4071798325
_cell_length_c    7.62428998946
_cell_angle_alpha    90.0
_cell_angle_beta    101.915802002
_cell_angle_gamma    90.0

_symmetry_space_group_name_H-M    'P 1'
loop_
_atom_site_label
_atom_site_type_symbol
_atom_site_fract_x
_atom_site_fract_y
_atom_site_fract_z
_atom_site_occupancy
Na1   Na   0.359541654276334   0.780380897663641   0.119594294016476   1.0
Na2   Na   0.640458315723671   0.219619102336359   0.880405712983521   1.0
Na3   Na   0.640458315723671   0.280380897663640   0.380405712983521   1.0
Na4   Na   0.359541654276334   0.719619102336359   0.619594287016479   1.0
Nb5   Nb   0.156330991800336   0.268472002092750   0.318930188508522   1.0
Nb6   Nb   0.843668993199666   0.731527997907250   0.681069841491480   1.0
Nb7   Nb   0.843668993199666   0.768472002092750   0.181069811491478   1.0
Nb8   Nb   0.156330991800336   0.231527997907250   0.818930158508520   1.0
O9   O   0.178725163810831   0.152739423869724   0.056394264328943   1.0
O10   O   0.821274836189169   0.847260591130280   0.943605713671055   1.0
O11   O   0.821274836189169   0.652739408869720   0.443605743671057   1.0
O12   O   0.178725163810831   0.347260591130280   0.556394286328945   1.0
O13   O   0.041360489652524   0.564157472677745   0.210735360247015   1.0
O14   O   0.958639491347471   0.435842527322254   0.789264624752980   1.0
O15   O   0.958639491347471   0.064157472677745   0.289264624752980   1.0
O16   O   0.041360489652524   0.935842527322255   0.710735375247020   1.0
F17   F   0.378197870693220   0.452301255937794   0.313053298798122   1.0
F18   F   0.621802158306779   0.547698744062206   0.686946731201881   1.0
F19   F   0.621802158306779   0.952301255937794   0.186946701201879   1.0
F20   F   0.378197870693220   0.047698744062206   0.813053268798119   1.0
F21   F   0.315078145608898   0.977300967406528   0.380617301332880   1.0
F22   F   0.684921854391102   0.022699032593472   0.619382698667120   1.0
F23   F   0.684921854391102   0.477300967406528   0.119382698667120   1.0
F24   F   0.315078145608898   0.522699032593472   0.880617301332880   1.0


