data_1
_audit_creation_method   'vasp2cif'
_cell_length_a    8.099729538
_cell_length_b    5.4391298294
_cell_length_c    7.49814987184
_cell_angle_alpha    90.0
_cell_angle_beta    102.128303528
_cell_angle_gamma    90.0

_symmetry_space_group_name_H-M    'P 1'
loop_
_atom_site_label
_atom_site_type_symbol
_atom_site_fract_x
_atom_site_fract_y
_atom_site_fract_z
_atom_site_occupancy
Na1   Na   0.376700014000001   0.793200016000000   0.109200000999998   1.0
Na2   Na   0.623299955999997   0.206799984000000   0.890799999000002   1.0
Na3   Na   0.623299955999997   0.293200016000000   0.390799999000002   1.0
Na4   Na   0.376700014000001   0.706799984000000   0.609200000999998   1.0
Ta5   Ta   0.158069998000002   0.259799987000001   0.298159986999998   1.0
Ta6   Ta   0.841930032000000   0.740200043000002   0.701840042999997   1.0
Ta7   Ta   0.841930032000000   0.759799956999998   0.201840013000002   1.0
Ta8   Ta   0.158069998000002   0.240200012999999   0.798159957000003   1.0
O9   O   0.198500007000000   0.154300003999999   0.053300000999997   1.0
O10   O   0.801499962999998   0.845700026000003   0.946699977000002   1.0
O11   O   0.801499962999998   0.654299973999997   0.446700006999997   1.0
O12   O   0.198500007000000   0.345699996000001   0.553300022999998   1.0
O13   O   0.036699999000000   0.559199989000000   0.216299995999996   1.0
O14   O   0.963299990000003   0.440800011000000   0.783699988999999   1.0
O15   O   0.963299990000003   0.059199989000000   0.283699988999999   1.0
O16   O   0.036699999000000   0.940800011000000   0.716300011000001   1.0
F17   F   0.376399994000003   0.471899985999997   0.303699999999999   1.0
F18   F   0.623600005999997   0.528100014000003   0.696300030000003   1.0
F19   F   0.623600005999997   0.971899985999997   0.196300000000001   1.0
F20   F   0.376399994000003   0.028100014000003   0.803699969999997   1.0
F21   F   0.330399989999996   0.982299984000001   0.376700014000001   1.0
F22   F   0.669600010000003   0.017700015999999   0.623299955999997   1.0
F23   F   0.669600010000003   0.482299984000001   0.123299985999999   1.0
F24   F   0.330399989999996   0.517700015999999   0.876700044000003   1.0


